/*--------------------------------*- C++ -*----------------------------------*\
| =========                 |                                                 |
| \\      /  F ield         | OpenFOAM: The Open Source CFD Toolbox           |
|  \\    /   O peration     | Version:  v2112                                 |
|   \\  /    A nd           | Website:  www.openfoam.com                      |
|    \\/     M anipulation  |                                                 |
\*---------------------------------------------------------------------------*/
FoamFile
{
    version     2.0;
    format      ascii;
    class       dictionary;
    object      controlDict;
}
// * * * * * * * * * * * * * * * * * * * * * * * * * * * * * * * * * * * * * //

application     polymSimpleFoam;

startFrom       latestTime;

startTime       0;

stopAt          endTime;

endTime         0.003;

deltaT          0.00000005; //Time step should be chosen so small that a Courant number is less than 1

writeControl    timeStep;

writeInterval   600; //Number of output folders or steps in ParaView (deltaT*writeInterval = step width of the folders)

purgeWrite      0;

writeFormat     binary;

writePrecision  10;

writeCompression off;

timeFormat      general;

timePrecision   6;

graphFormat     raw;

runTimeModifiable true;

//_______below additional outputs and options
functions //https://www.openfoam.com/documentation/guides/latest/doc/guide-function-objects.html
{

	// Writes the residuals for each iteration step to a file in the postProcessing folder, graphing while solving via the "AllMonitor" script
	residual1 
	{
		type		residuals;
		libs		("libutilityFunctionObjects.so");
		writeControl    timeStep;
		writeInterval   1;
		fields (p U h);
	}

	// The fieldMinMax function object computes the values and locations of field minima and maxima. These are good indicators of calculation performance, e.g. to confirm that predicted results are within expected bounds, or how well a case is converging.
	minMax
	{
		type            volFieldValue;
		libs            ("libfieldFunctionObjects.so");
		fields          (U p);
		executeControl  writeTime;
		writeControl    writeTime;

		writeFields	false;
		log		false;

		regionType	all;
		operation	max;
	}

	writeThermophysicalProperties
	{
		type		writeObjects;
		libs		("libutilityFunctionObjects.so");
		objects	(thermo:alpha thermo:mu);
		//executeControl	timeStep;
		writeControl	writeTime;
		//writeInterval	60;
	}
}

// ************************************************************************* //
