/*--------------------------------*- C++ -*----------------------------------*\
| =========                 |                                                 |
| \\      /  F ield         | OpenFOAM: The Open Source CFD Toolbox           |
|  \\    /   O peration     | Version:  v2112                                 |
|   \\  /    A nd           | Website:  www.openfoam.com                      |
|    \\/     M anipulation  |                                                 |
\*---------------------------------------------------------------------------*/
FoamFile
{
    version     2.0;
    format      ascii;
    class       dictionary;
    object      fvSolution;
}
// * * * * * * * * * * * * * * * * * * * * * * * * * * * * * * * * * * * * * //

solvers
{
    p
    {
        solver          	GAMG;
        preconditioner  	GAMG;
        tolerance       	1e-09;
        relTol          	0.01;
	smoother		DICGaussSeidel;
	cacheAgglomeration	true;
	nCellsInCoarsestLevel	145;
	agglomerator		faceAreaPair;
	mergeLevels		1;
	directSolveCoarsest	false;
    }

    U
    {
        solver         smoothSolver;
	smoother	GaussSeidel;
        nSweeps		2;
        tolerance       1e-08;
        relTol          0.01;
    }

    "(e|h)"
    {
        solver         smoothSolver;
	smoother	GaussSeidel;
        nSweeps		2;
        tolerance       1e-09;
        relTol          0.01;
    }
}

SIMPLE
{
    nNonOrthogonalCorrectors 2;
    pMinFactor      0.99;
    pMaxFactor      200;

    transonic       no;
    consistent      yes;

    rhoMax          rhoMax [ 1 -3 0 0 0 0 0 ] 1.2;
    rhoMin          rhoMin [ 1 -3 0 0 0 0 0 ] 0.9;
    
    residualControl
    {
        p               2e-2;
        U               2e-2;
        h		 1e-3;
    }
}

relaxationFactors
{
    U               0.9;
    p               1;
    rho             1;
    h               0.9;
}

// ************************************************************************* //
