/*--------------------------------*- C++ -*----------------------------------*\
  =========                 |
  \\      /  F ield         | OpenFOAM: The Open Source CFD Toolbox
   \\    /   O peration     | Website:  https://openfoam.org
    \\  /    A nd           | Version:  7
     \\/     M anipulation  |
\*---------------------------------------------------------------------------*/
FoamFile
{
    version     2.0;
    format      ascii;
    class       dictionary;
    location    "system";
    object      fvSchemes;
}
// * * * * * * * * * * * * * * * * * * * * * * * * * * * * * * * * * * * * * //

ddtSchemes
{
    default             steadyState;
}

gradSchemes
{
    default         Gauss linear;

    limited         cellLimited Gauss linear 0.1;
    grad(U)         $limited;
}

divSchemes
{
    default         none;

    div(phi,U)      bounded Gauss linearUpwind grad(U);

    energy          bounded Gauss linearUpwind limited;

    div(phi,e)      $energy;
    div(phi,Ekp)    $energy;
    div(phi,h)    $energy;
    div(phi,K)    $energy;

    div(((rho*nuEff)*dev2(T(grad(U)))))    Gauss linear;
}

laplacianSchemes
{
    default         Gauss linear corrected;
}

interpolationSchemes
{
    default         linear;
}

snGradSchemes
{
    default         corrected;
}

/*
wallDist				
{
    method meshWave;
}
*/


// ************************************************************************* //
